
#======================================================================
# CRYSTAL DATA
#----------------------------------------------------------------------
data_VESTA_phase_1

_chemical_name_common                  ''
_cell_length_a                         11.671(2)
_cell_length_b                         11.671(2)
_cell_length_c                         5.833(2)
_cell_angle_alpha                      90.000000
_cell_angle_beta                       90.000000
_cell_angle_gamma                      120.000000
_cell_volume                           688.079667
_space_group_name_H-M_alt              'P 1'
_space_group_IT_number                 1

loop_
_space_group_symop_operation_xyz
   'x, y, z'

loop_
   _atom_site_label
   _atom_site_occupancy
   _atom_site_fract_x
   _atom_site_fract_y
   _atom_site_fract_z
   _atom_site_adp_type
   _atom_site_U_iso_or_equiv
   _atom_site_type_symbol
   Ba01       1.0     0.66577(3)   0.000000     0.2569(5)   Uani  0.018616 Ba
   Ba01       1.0     0.000000     0.66577(3)   0.2569(5)   Uani  0.018616 Ba
   Ba01       1.0     0.33423(3)   0.33423(3)   0.2569(5)   Uani  0.018616 Ba
   Ba01       1.0     0.33423(3)   0.000000     0.7569(5)   Uani  0.018616 Ba
   Ba01       1.0     0.000000     0.33423(3)   0.7569(5)   Uani  0.018616 Ba
   Ba01       1.0     0.66577(3)   0.66577(3)   0.7569(5)   Uani  0.018616 Ba
   Ti01       1.0     0.666667     0.333333     0.0668(4)   Uani  0.028411 Ti
   Ti01       1.0     0.333333     0.666667     0.5668(4)   Uani  0.028411 Ti
   Ti01       1.0     0.666667     0.333333     0.5668(4)   Uani  0.028411 Ti
   Ti01       1.0     0.333333     0.666667     0.0668(4)   Uani  0.028411 Ti
   Ti02       1.0     0.000000     0.000000     0.9287(4)   Uani  0.020156 Ti
   Ti02       1.0     0.000000     0.000000     0.4287(4)   Uani  0.020156 Ti
   S001       1.0     0.83416(10)  0.000000     0.7075(4)   Uani  0.014722 S
   S001       1.0     0.000000     0.83416(10)  0.7075(4)   Uani  0.014722 S
   S001       1.0     0.16584(10)  0.16584(10)  0.7075(4)   Uani  0.014722 S
   S001       1.0     0.16584(10)  0.000000     0.2075(4)   Uani  0.014722 S
   S001       1.0     0.000000     0.16584(10)  0.2075(4)   Uani  0.014722 S
   S001       1.0     0.83416(10)  0.83416(10)  0.2075(4)   Uani  0.014722 S
   S002       1.0     0.83207(7)   0.33219(7)   0.2919(4)   Uani  0.016156 S
   S002       1.0     0.66781(7)   0.49988(10)  0.2919(4)   Uani  0.016156 S
   S002       1.0     0.50012(10)  0.16793(7)   0.2919(4)   Uani  0.016156 S
   S002       1.0     0.16793(7)   0.66781(7)   0.7919(4)   Uani  0.016156 S
   S002       1.0     0.33219(7)   0.50012(10)  0.7919(4)   Uani  0.016156 S
   S002       1.0     0.49988(10)  0.83207(7)   0.7919(4)   Uani  0.016156 S
   S002       1.0     0.66781(7)   0.16793(7)   0.7919(4)   Uani  0.016156 S
   S002       1.0     0.50012(10)  0.33219(7)   0.7919(4)   Uani  0.016156 S
   S002       1.0     0.83207(7)   0.49988(10)  0.7919(4)   Uani  0.016156 S
   S002       1.0     0.33219(7)   0.83207(7)   0.2919(4)   Uani  0.016156 S
   S002       1.0     0.49988(10)  0.66781(7)   0.2919(4)   Uani  0.016156 S
   S002       1.0     0.16793(7)   0.50012(10)  0.2919(4)   Uani  0.016156 S

loop_
   _atom_site_aniso_label
   _atom_site_aniso_U_11
   _atom_site_aniso_U_22
   _atom_site_aniso_U_33
   _atom_site_aniso_U_12
   _atom_site_aniso_U_13
   _atom_site_aniso_U_23
   Ba01	 0.01549  0.01450  0.02550  0.00723 -0.00555  0.00000
   Ba01	 0.01450  0.01553  0.02550  0.00727  0.00000 -0.00555
   Ba01	 0.01553  0.01549  0.02550  0.00826  0.00555  0.00555
   Ba01	 0.01549  0.01450  0.02550  0.00723  0.00555  0.00000
   Ba01	 0.01450  0.01553  0.02550  0.00727  0.00000  0.00555
   Ba01	 0.01553  0.01549  0.02550  0.00826 -0.00555 -0.00555
   Ti01	 0.02890  0.02890  0.02750  0.01450  0.00000  0.00000
   Ti01	 0.02890  0.02890  0.02750  0.01450  0.00000  0.00000
   Ti01	 0.02890  0.02890  0.02750  0.01450  0.00000  0.00000
   Ti01	 0.02890  0.02890  0.02750  0.01450  0.00000  0.00000
   Ti02	 0.02630  0.02630  0.00780  0.01310  0.00000  0.00000
   Ti02	 0.02630  0.02630  0.00780  0.01310  0.00000  0.00000
   S001	 0.01240  0.01880  0.01510  0.00940  0.00120  0.00000
   S001	 0.01880  0.01240  0.01510  0.00940  0.00000  0.00120
   S001	 0.01240  0.01240  0.01510  0.00300 -0.00120 -0.00120
   S001	 0.01240  0.01880  0.01510  0.00940 -0.00120  0.00000
   S001	 0.01880  0.01240  0.01510  0.00940  0.00000 -0.00120
   S001	 0.01240  0.01240  0.01510  0.00300  0.00120  0.00120
   S002	 0.01130  0.01720  0.02180  0.00850 -0.00140 -0.00130
   S002	 0.01720  0.01150  0.02180  0.00870  0.00130 -0.00010
   S002	 0.01150  0.01130  0.02180  0.00280  0.00010  0.00140
   S002	 0.01130  0.01720  0.02180  0.00850  0.00140  0.00130
   S002	 0.01720  0.01150  0.02180  0.00870 -0.00130  0.00010
   S002	 0.01150  0.01130  0.02180  0.00280 -0.00010 -0.00140
   S002	 0.01720  0.01130  0.02180  0.00850  0.00130  0.00140
   S002	 0.01150  0.01720  0.02180  0.00870  0.00010 -0.00130
   S002	 0.01130  0.01150  0.02180  0.00280 -0.00140 -0.00010
   S002	 0.01720  0.01130  0.02180  0.00850 -0.00130 -0.00140
   S002	 0.01150  0.01720  0.02180  0.00870 -0.00010  0.00130
   S002	 0.01130  0.01150  0.02180  0.00280  0.00140  0.00010
